10
acetone/RHF/STO-3G/-189.536032675683
 O -0.48290261 -0.04480871  1.23808560
 C  1.47182010  0.08370458 -0.19038715
 C -0.04029423 -0.00394934  0.10340750
 C -0.95267153 -0.03549940 -1.14040218
 H  2.03401208  0.10189727  0.73754531
 H  1.69083368  0.98478978 -0.75649135
 H  1.78786852 -0.77182799 -0.78079295
 H -0.80666078  0.86286350 -1.73372307
 H -0.70929029 -0.89369698 -1.76060689
 H -1.99371494 -0.09777271 -0.84073481
