13
alanine/RHF/STO-3G/-317.699494743076
 O -0.95197065  1.69392496 -0.24478534
 O -0.40685665  1.01102125  1.85433667
 N -0.88491500 -0.72388812 -1.26487129
 C -0.17320385 -0.64218090  0.04250727
 C -0.52178501  0.75231044  0.67188916
 C  1.35396557 -0.75156262 -0.16791527
 H -0.40719643 -1.41304613 -1.86364278
 H -0.49180774 -1.42201399  0.74078454
 H -1.01885871  1.17507838 -1.08678150
 H  1.69848537  0.01166167 -0.85956101
 H  1.61101638 -1.72708028 -0.57125697
 H  1.86846809 -0.62250924  0.77931353
 H -1.82734138 -1.10971542 -1.10201700
