8
cyclopropanone/RHF/STO-3G/-188.294742493571
 C -0.00000000000004 -0.77102496655662 -0.95383421819374
 C  0.00000000000005  0.77102496655665 -0.95383421819372
 C  0.00000000000001 -0.00000000000000  0.30930574689589
 H -0.90695930404891 -1.27477131038588 -1.26200193403345
 H -0.90695930404896  1.27477131038587 -1.26200193403321
 H  0.90695930404892  1.27477131038590 -1.26200193403346
 H  0.90695930404893 -1.27477131038591 -1.26200193403319
 O -0.00000000000000 -0.00000000000001  1.51807042562487
