8
cyclopropanone/RHF/STO-3G/-188.294742493571
 C -0.00000000 -0.77102497 -0.95383422
 C  0.00000000  0.77102497 -0.95383422
 C  0.00000000 -0.00000000  0.30930575
 H -0.90695930 -1.27477131 -1.26200193
 H -0.90695930  1.27477131 -1.26200193
 H  0.90695930  1.27477131 -1.26200193
 H  0.90695930 -1.27477131 -1.26200193
 O -0.00000000 -0.00000000  1.51807043
