14
cysteine/RHF/STO-3G/-710.869691295364
 S -2.26748382151959 -0.25669172615941 -0.58560288576927
 O  2.77703678745080  0.12820560039741  0.66668455614683
 O  2.29498833938171 -0.58577383148931 -1.43763626709215
 N  0.26807705671290  0.55434319838254  1.31130588501204
 C  0.40463691702036 -0.33672583690664  0.12592672118201
 C  1.90747472011598 -0.27963629630442 -0.32676638660590
 C -0.54072513126471 -0.01900874343542 -1.05901688527822
 H -0.56025367511925  0.26572291894440  1.85206935669943
 H  0.05818685912182  1.50919402425805  0.98164102043196
 H  0.21659285841391 -1.35788168415270  0.46901221603491
 H  2.17058259734503  0.38269776771629  1.40772709029639
 H -0.26449911690115 -0.66965643926415 -1.88698835626330
 H -0.36453250082983  1.00616635847297 -1.38340241510280
 H -2.76808188992800  0.11904468954038 -1.75895364969192
