14
cysteine/RHF/STO-3G/-710.869691297137
 S -2.26748354 -0.25669143 -0.58560219
 O  2.77703711  0.12820450  0.66668477
 O  2.29498881 -0.58577352 -1.43763660
 N  0.26807731  0.55434420  1.31130526
 C  0.40463705 -0.33672572  0.12592665
 C  1.90747512 -0.27963670 -0.32676664
 C -0.54072502 -0.01900823 -1.05901677
 H -0.56025262  0.26572277  1.85206941
 H  0.05818501  1.50919442  0.98164002
 H  0.21659254 -1.35788139  0.46901234
 H  2.17058203  0.38269664  1.40772801
 H -0.26449932 -0.66965558 -1.88698864
 H -0.36453243  1.00616687 -1.38340228
 H -2.76808205  0.11904317 -1.75895332
