15
diethylether/RHF/STO-3G/-229.300979890854
 O  0.14085560 -0.02688921 -0.27547165
 C -1.96542530 -0.04973640 -1.45585586
 C  2.33190827 -0.02052970  0.73916837
 C  0.81267162  0.05110920  0.99065370
 C -1.27950825  0.03688758 -0.07800567
 H  2.64824979  0.80212309  0.10544191
 H  2.58908124 -0.95357959  0.24752346
 H  2.86947543  0.03755658  1.68083708
 H  0.50635534 -0.77282179  1.64742719
 H  0.56616421  0.98727811  1.50724825
 H -1.62318637 -0.78730064  0.55967961
 H -1.56364681  0.97279819  0.41937193
 H -1.64651088  0.77309519 -2.08805897
 H -1.70754617 -0.98265674 -1.94737787
 H -3.04403772 -0.00293386 -1.33968148
