9
dimethylether/RHF/STO-3G/-152.133875344690
 O -0.27102850  0.07641018  0.53227566
 C  1.14651278  0.01830241  0.32621489
 C -0.94371840 -0.07553560 -0.72457004
 H  1.62373898  0.13708008  1.30052966
 H  1.49909288  0.81782811 -0.33353222
 H  1.46091045 -0.93973287 -0.10056755
 H -0.68169937  0.71992978 -1.42983679
 H -0.71991373 -1.03763397 -1.19690348
 H -2.01639509 -0.02634813 -0.52941012
