9
dimethylether/RHF/STO-3G/-152.133875344690
 O -0.27102849674662  0.07641018299220  0.53227565734482
 C  1.14651278013440  0.01830241367835  0.32621488830965
 C -0.94371839565583 -0.07553560371038 -0.72457004345853
 H  1.62373898183952  0.13708008310874  1.30052965947431
 H  1.49909287736515  0.81782811372687 -0.33353222452233
 H  1.46091045149886 -0.93973287211271 -0.10056755083937
 H -0.68169937172069  0.71992978058510 -1.42983678869431
 H -0.71991373314932 -1.03763396605194 -1.19690347927894
 H -2.01639509356547 -0.02634813221623 -0.52941011833531
