24
diphenylacetylene/RHF/STO-3G/-529.389822801599
 C  2.04608680  0.00001142  0.00000810
 C -2.04620911  0.00002148  0.00010287
 C  2.75486231 -0.99780190  0.67317734
 C -2.75492393  0.99802355  0.67305350
 C  2.75479433  0.99785550 -0.67318942
 C -2.75498396 -0.99792032 -0.67287372
 C  4.13953676 -0.99514043  0.67162789
 C -4.13959618  0.99546036  0.67149757
 C  4.13946771  0.99526046 -0.67168260
 C -4.13965612 -0.99523209 -0.67137875
 C  4.83420807  0.00007706 -0.00003719
 C -4.83433478  0.00014530  0.00004361
 C  0.58835383 -0.00002154  0.00003047
 C -0.58847991 -0.00003489  0.00012384
 H  2.21292787 -1.77469266  1.19750997
 H -2.21294043  1.77498902  1.19722160
 H  2.21280630  1.77471875 -1.19750675
 H -2.21304787 -1.77493576 -1.19701625
 H  4.67931522 -1.77286950  1.19670271
 H -4.67932299  1.77334012  1.19640337
 H  4.67919301  1.77301308 -1.19677719
 H -4.67942954 -1.77306485 -1.19630600
 H  5.91691908  0.00010346 -0.00005396
 H -5.91704648  0.00019440  0.00001901
