9
ethanol/RHF/STO-3G/-152.133066009813
 O  1.26613838840743 -0.26166095998409 -0.12899326427919
 C -1.22003093583390 -0.23961234447646 -0.01095446328131
 C  0.10323052662084  0.55952797261739  0.04589244544263
 H -2.06636360324013  0.43494406276087  0.07393174708372
 H -1.27136756163050 -0.95745490197687  0.80297377508156
 H  0.14980828388238  1.11551939604718  0.99081866502027
 H  1.22804068179189 -0.89576565497521  0.63186324330792
 H  0.11824678723822  1.29285932430773 -0.76527975719843
 H -1.29770256723624 -0.77835689432055 -0.95025239117717
