9
ethanol/RHF/STO-3G/-152.133066009813
 O  1.26613839 -0.26166096 -0.12899326
 C -1.22003094 -0.23961234 -0.01095446
 C  0.10323053  0.55952797  0.04589245
 H -2.06636360  0.43494406  0.07393175
 H -1.27136756 -0.95745490  0.80297378
 H  0.14980828  1.11551940  0.99081867
 H  1.22804068 -0.89576566  0.63186324
 H  0.11824679  1.29285932 -0.76527976
 H -1.29770257 -0.77835689 -0.95025239
