8
ethane/RHF/STO-3G/-78.306179645574
 C -0.76820461372113  0.02294963843400  0.02133167005135
 C  0.76817958043606 -0.02299949616709 -0.02133141625383
 H  1.18140659144457 -0.00406069675737  0.98285905455636
 H  1.16330144749851  0.82915820775348 -0.56650978701080
 H  1.11223365434442 -0.92856189545137 -0.51234551241363
 H -1.16333622296988 -0.82935480348647  0.56627348725480
 H -1.11225892482581  0.92838062231711  0.51258995862227
 H -1.18142151220674  0.00428842335771 -0.98286745480652
