6
ethylene/RHF/STO-3G/-77.073954759237
 C  3.41847321555961  0.77322814169395 -9.24789088285234
 C  4.68079246764501  0.79074110734947 -8.91352526876053
 H  2.90859763735628 -0.13973593936976 -9.52560669836287
 H  2.81458279626107  1.67078502548716 -9.26559429313297
 H  5.28476451160131 -0.10676847365588 -8.89620281219850
 H  5.19078937157672  1.70375013849506 -8.63618004469279
