23
heptane/RHF/STO-3G/-271.207260606999
 C  2.08705728793449  1.44844896790312 -8.93793384058400
 C  3.57829603274341  1.43024497666160 -8.54922980859541
 C  4.18707574406922  0.01167075898097 -8.61271405424835
 C  8.39250065847354 -2.85768828402831 -7.95986168827926
 C  6.29020105166976 -1.42463992117949 -8.28643681278019
 C  7.78507524087967 -1.44270802555336 -7.89659130922224
 C  5.68181596997442 -0.00607111205546 -8.22286842461560
 H  1.50759123616945  0.81852383588289 -8.26948215376251
 H  1.68991103458411  2.45776953052322 -8.88316354902158
 H  1.94929218195671  1.08359525750101 -9.95150049601520
 H  4.13168409922310  2.08898083153815 -9.21607636034832
 H  3.69195301723289  1.82533082859998 -7.54133871884620
 H  3.63328074783587 -0.64683741313332 -7.94607276110063
 H  4.07316638784831 -0.38310741390526 -9.62063669127066
 H  5.79532508586839  0.38908187190156 -7.21499596934075
 H  6.23520331219947  0.65278439123162 -8.88959080368965
 H  6.17716742229006 -1.82008183104401 -9.29424788250640
 H  5.73726430566993 -2.08379628898792 -7.61963197174231
 H  7.89845261585549 -1.04752303458501 -6.88865664087344
 H  8.33839939341948 -0.78378103387056 -8.56337580241900
 H  9.44187218774916 -2.83615736846851 -7.68087408920887
 H  7.87432280696138 -3.52944287071379 -7.28180943607753
 H  8.31609217939166 -3.26459665319913 -8.96391073545184
