5
methane/RHF/STO-3G/-39.726863679776
 C -0.00001845675861 -0.00001860399918 -0.00003758750090
 H  0.52686999962768  0.16043882839448  0.93246028897611
 H  0.20438444000560  0.82100751251558 -0.67608965380607
 H  0.33329153673537 -0.92801815506302 -0.44795797820057
 H -1.06462751961004 -0.05350958184786  0.19142493053142
