11
propane/RHF/STO-3G/-116.886422156216
 C  1.29804237 -0.06523915  0.16725968
 C -0.19420373 -0.00880787  0.54842450
 C -1.11477713  0.07345422 -0.68488202
 H  1.91818216 -0.12230669  1.05694908
 H  1.58554674  0.82043898 -0.39162120
 H  1.50473180 -0.93599884 -0.44795588
 H -0.45024069 -0.89310493  1.12946469
 H -0.36967026  0.85597325  1.18600499
 H -0.89681728  0.96314593 -1.26829948
 H -0.97803365 -0.79326680 -1.32482544
 H -2.15706033  0.11191191 -0.38231892
