11
propane/RHF/STO-3G/-116.886422156216
 C  1.29804236808569 -0.06523915263167  0.16725967599613
 C -0.19420372579259 -0.00880787029988  0.54842450218186
 C -1.11477712835103  0.07345421659461 -0.68488202375577
 H  1.91818215789216 -0.12230669481485  1.05694907647824
 H  1.58554674490259  0.82043897671335 -0.39162119550748
 H  1.50473179722547 -0.93599884081244 -0.44795588183968
 H -0.45024068714729 -0.89310492749002  1.12946469185003
 H -0.36967025798051  0.85597324646334  1.18600499003591
 H -0.89681728371292  0.96314592962529 -1.26829948332654
 H -0.97803365397144 -0.79326679526104 -1.32482543552942
 H -2.15706033115012  0.11191191191331 -0.38231891658330
