10
pyrrole/RHF/STO-3G/-206.227120673279
 N  0.00000000  0.00000000  1.12697452
 C  0.00000000 -1.12827563  0.31738484
 C  0.00000000  1.12827563  0.31738484
 C -0.00000000  0.71593665 -0.96906448
 C  0.00000000 -0.71593665 -0.96906448
 H  0.00000000  2.11819810  0.74859170
 H -0.00000000 -2.11819810  0.74859170
 H -0.00000000  1.35092631 -1.83921897
 H  0.00000000 -1.35092631 -1.83921897
 H -0.00000000  0.00000000  2.14733931
