10
pyrrole/RHF/STO-3G/-206.227120673279
 N -0.00000000000000 -0.00000000000000  1.12697451642594
 C -0.00000000000000 -1.12827563037226  0.31738483734923
 C  0.00000000000001  1.12827563037224  0.31738483734923
 C -0.00000000000000  0.71593665338485 -0.96906448144200
 C  0.00000000000001 -0.71593665338484 -0.96906448144200
 H  0.00000000000001  2.11819809644475  0.74859170130613
 H -0.00000000000001 -2.11819809644477  0.74859170130615
 H -0.00000000000001  1.35092631210021 -1.83921897014978
 H  0.00000000000001 -1.35092631210019 -1.83921897014980
 H -0.00000000000000  0.00000000000002  2.14733930944689
