27
tryptophan/RHF/STO-3G/-673.592944900689
 O  4.45755839967920  0.51435503521988  1.22771197286437
 O  3.82380142046427  1.12587893071857 -0.86765200410775
 N  2.01935383387399  0.56812536790163  2.20028634751910
 N -2.46753090569610  1.29068669631311  1.22402735611175
 C  2.03436182168150  0.50553101308309  0.71234094983727
 C  3.51169998504047  0.76280212014014  0.24987721745319
 C  1.04753911074156  1.47320722322463 -0.00020935846807
 C -0.40562302761675  1.18124661425041  0.32878678494921
 C -1.20341705096443  1.88780462705662  1.14965767551815
 C -1.19876369349839  0.06831556555802 -0.17791134103007
 C -2.47448960764058  0.17211585470612  0.38857806000577
 C -0.93313738178069 -0.98823145777671 -1.06660338186990
 C -3.49744378594103 -0.74463654289590  0.10267869060726
 C -1.92911349412611 -1.88595635779646 -1.34963104372302
 C -3.20683245627575 -1.76373507037963 -0.76554426926531
 H  3.90765722468815  0.31667527462799  2.02816334937298
 H  1.78855313793994 -0.52204770044924  0.43348134229469
 H  1.85813934089512  1.54765214981527  2.48230361759656
 H  1.21897819372160  1.38968602579777 -1.07237385511687
 H  1.28983986473995  2.49481058943492  0.28773513190340
 H -0.99591223395072  2.78709039940342  1.71365919797838
 H  0.04280493862242 -1.08886579013718 -1.52496150475755
 H -3.27472733344661  1.67506910181489  1.71305869406542
 H -1.74195954931365 -2.70385157285937 -2.03252162345365
 H -4.47635909780115 -0.64444002678583  0.55162372092985
 H -3.96969550311408 -2.49127641511844 -1.01307505064401
 H  1.19471784907787  0.05198834513226  2.54051332342885
