27
tryptophan/RHF/STO-3G/-673.592944900687
 O  4.45755840  0.51435504  1.22771197
 O  3.82380142  1.12587893 -0.86765200
 N  2.01935383  0.56812537  2.20028635
 N -2.46753091  1.29068670  1.22402736
 C  2.03436182  0.50553101  0.71234095
 C  3.51169999  0.76280212  0.24987722
 C  1.04753911  1.47320722 -0.00020936
 C -0.40562303  1.18124661  0.32878678
 C -1.20341705  1.88780463  1.14965768
 C -1.19876369  0.06831557 -0.17791134
 C -2.47448961  0.17211585  0.38857806
 C -0.93313738 -0.98823146 -1.06660338
 C -3.49744379 -0.74463654  0.10267869
 C -1.92911349 -1.88595636 -1.34963104
 C -3.20683246 -1.76373507 -0.76554427
 H  3.90765722  0.31667527  2.02816335
 H  1.78855314 -0.52204770  0.43348134
 H  1.85813934  1.54765215  2.48230362
 H  1.21897819  1.38968603 -1.07237386
 H  1.28983986  2.49481059  0.28773513
 H -0.99591223  2.78709040  1.71365920
 H  0.04280494 -1.08886579 -1.52496150
 H -3.27472733  1.67506910  1.71305869
 H -1.74195955 -2.70385157 -2.03252162
 H -4.47635910 -0.64444003  0.55162372
 H -3.96969550 -2.49127642 -1.01307505
 H  1.19471785  0.05198834  2.54051332
