24
tyrosine/RHF/STO-3G/-618.291682560726
 O  4.24405830  2.60719406  0.34364485
 O -3.08935791 -2.33486134  1.16038521
 O  3.60356622  2.04893763 -1.76478832
 N  2.03848225  1.72020938  1.46192117
 C  2.24122541  1.17009197  0.09329772
 C  3.41184419  1.98164402 -0.56622089
 C  0.98167882  1.16756396 -0.81778695
 C -0.12540604  0.25317918 -0.29187248
 C -1.23116068  0.76872986  0.36790543
 C -0.03844684 -1.13115738 -0.45254037
 C -2.22811437 -0.06109909  0.85916875
 C -1.02004170 -1.97054940  0.02978153
 C -2.12915370 -1.43779430  0.69413861
 H  1.37521317  2.50831524  1.40211440
 H  2.59570666  0.14272448  0.21090469
 H  3.79676368  2.44050431  1.21214200
 H  1.29529305  0.84868333 -1.81009734
 H  0.60889732  2.18609284 -0.90500864
 H -1.32797225  1.83946983  0.49940485
 H  0.81359937 -1.55487744 -0.97027773
 H -3.08504509  0.35999575  1.36852059
 H -0.95040945 -3.04223884 -0.09910384
 H -3.78745623 -1.77592887  1.58229884
 H  1.56223583  1.00917083  2.03606792
